Test_Network/Feed1/Master.dss
clear

Set DefaultBaseFrequency=50  ! for European system

New circuit.LVTest
Edit Vsource.Source BasekV=11 pu=1.05  ISC3=3000  ISC1=5
Redirect LineCode.txt
Redirect Lines.txt
Redirect Transformers.txt
Redirect Loads.txt
Redirect Monitors.txt
Redirect Generators.txt

Set voltagebases=[11  .416]
Calcvoltagebases

New energymeter.m1 Transformer.TR1 2

LatLongCoords XY_Position.csv

! Set "DemandInterval" to true so that energy quantities recorded by energy meters are recorded for 
! each time step and set "casename" to define a directory under default directory in which all of the 
! demand interval data is recorded.  (NOTE: Setting Demand=true resets all energymeters.)

Set overloadreport=true  ! TURN OVERLOAD REPORT ON
Set voltexcept=true      ! voltage exception report
set demand=false          ! demand interval ON
set DIVerbose=true       ! verbose mode is ON
